84
Energy = -2131.848458949
Eu    8.9675537   10.3336349    7.9161269 
N     8.4720591   12.7027387    7.4723609 
N     8.5980118   11.3328913    5.6885153 
N    10.8194317   10.7350509   10.4835565 
N    11.4346294   10.5122589    8.3002999 
N     6.6550336    9.2615398    8.0827384 
N     8.9214270    8.0112297    7.6953656 
C     8.4799401   13.9872474    8.1336643 
H     7.9212263   14.7423246    7.5433401 
C     7.7826412   13.8699012    9.4871114 
H     6.7269254   13.5742102    9.3592525 
H     7.8068612   14.8292831   10.0342516 
H     8.2808607   13.0984276   10.1025142 
C     9.9076149   14.5123868    8.3152643 
H    10.4903427   13.8086418    8.9370207 
H     9.9138740   15.5024127    8.8073887 
H    10.4246463   14.6078474    7.3444768 
C     8.4052062   10.9626580    4.3032571 
H     7.6024960   11.5768375    3.8443987 
C     7.9355082    9.5114318    4.2296992 
C     9.6728239   11.1655286    3.4692360 
H    10.0118910   12.2158670    3.5048543 
H     9.5054690   10.8940578    2.4109253 
H    10.4925909   10.5374315    3.8599335 
C     8.4156894   12.5667480    6.1495508 
C    10.9205983   10.7724632   11.9484362 
C    11.7155597    9.6115361   12.5422659 
H    12.8026006    9.6962490   12.3779406 
C    12.4333919   10.5914037    7.2425403 
H    13.4549530   10.4721255    7.6493075 
C    12.3742649   11.9521936    6.5452185 
H    11.3838438   12.1007671    6.0783215 
H    13.1439962   12.0282809    5.7555864 
H    12.5345872   12.7729477    7.2654475 
C    12.2337919    9.4547608    6.2430121 
H    12.3925034    8.4733527    6.7197334 
H    12.9406250    9.5470468    5.3993858 
H    11.2104995    9.4649249    5.8261133 
C    11.7872053   10.7220522    9.5549430 
C     5.4214534    9.9793705    8.3821221 
C     5.2090782   11.1145224    7.3848083 
C     5.4707213   10.4889036    9.8212029 
C     9.9205911    7.0312339    8.0592700 
C    10.1424427    5.9649618    6.9814068 
C     6.6084046    7.9994186    7.8108384 
H     5.1682763   10.7264132    6.3526636 
H     6.0357245   11.8449439    7.4432759 
H     4.2614996   11.6418003    7.5949786 
H     5.5813349    9.6498447   10.5295615 
H     4.5475861   11.0400645   10.0740820 
H     6.3280206   11.1685810    9.9710888 
C     9.6808227    6.4001362    9.4352197 
H    10.3651727    6.4419552    6.0112941 
H     9.2376285    5.3450236    6.8551877 
H    10.9808091    5.2949621    7.2444794 
H    10.5182942    5.7400806    9.7262850 
H     8.7581326    5.7934374    9.4338114 
H     9.5718162    7.1895519   10.2000458 
C    11.3024697   12.1443880   12.5016478 
H    11.3742703    8.6555048   12.1098352 
H    11.5503383    9.5692359   13.6331681 
H    10.6851195   12.9284434   12.0314219 
H    12.3635705   12.3995470   12.3412934 
H    11.1186107   12.1712474   13.5900922 
H     9.8695675   10.6053739   12.2214908 
H     8.6718654    8.8363297    4.7018539 
H     7.7862221    9.1919547    3.1826906 
H     6.9816893    9.3877100    4.7710962 
H     4.5492088    9.3043152    8.3032122 
H    10.8430505    7.6363818    8.1313220 
C     5.3837419    7.1341031    7.6882001 
H     5.6901211    6.1168536    7.4046757 
H     4.6913317    7.5219577    6.9219570 
H     4.8360154    7.0831026    8.6444154 
C     8.1427428   13.7574483    5.2528284 
H     8.0915412   13.4860040    4.1899565 
H     8.9366544   14.5144001    5.3717068 
H     7.1899115   14.2404675    5.5311443 
C    13.2105501   10.9664278    9.9812286 
H    13.8384051   10.0817444    9.7788939 
H    13.2993391   11.2082933   11.0449140 
H    13.6352079   11.8115239    9.4141162 
O     7.6953049    7.3023946    7.5973949 
O     9.5627279   10.5825944   10.0493021 
