85
Energy = -2058.026091129
Eu    9.4233708   10.7371203    7.6645106 
N     8.4674189   13.0239002    7.1183579 
N     8.1574661   11.3367469    5.6621033 
N    10.4924885   11.2449068    9.7917263 
N    11.8917263   10.5603606    8.1751107 
N     7.5000293    9.6439742    8.7215887 
N     8.9723576    8.3720103    7.5864959 
C     8.2210230   14.3528525    7.6436447 
H     8.0100725   15.0609141    6.8164934 
C     7.0299452   14.4003590    8.6023171 
H     6.1119468   14.0134216    8.1270524 
H     6.8309670   15.4325236    8.9431678 
H     7.2305672   13.7777679    9.4916973 
C     9.4828593   14.8582041    8.3396664 
H     9.7734160   14.1681328    9.1528186 
H     9.3273400   15.8623701    8.7724890 
H    10.3284944   14.9228200    7.6316193 
C     7.7899580   10.7290708    4.4035360 
H     7.5387499   11.5047252    3.6538934 
C     6.5741277    9.8149328    4.5562403 
C     8.9922242    9.9623788    3.8535936 
H     9.8584938   10.6351778    3.7359824 
H     8.7621550    9.5060621    2.8742234 
H     9.2812533    9.1533268    4.5487783 
C     7.8672872   12.5767187    6.0028507 
C    10.0193080   11.5584584   11.1293824 
C     9.7682570   10.3336512   12.0173038 
H    10.6979172    9.8625295   12.3800958 
C    13.1347276   10.0445777    7.6323366 
H    13.5199339    9.2095844    8.2563928 
C    14.2275713   11.1175175    7.5687493 
H    13.9122207   11.9483723    6.9115526 
H    15.1669820   10.7030547    7.1608537 
H    14.4498406   11.5384498    8.5639192 
C    12.8864902    9.4770330    6.2373875 
H    12.1474526    8.6583463    6.2732012 
H    13.8189630    9.0745384    5.8044254 
H    12.4986947   10.2596738    5.5614282 
C    11.6951832   10.7729338    9.4783969 
C     6.2029363    9.9118090    9.3058970 
C     5.2485477   10.5056751    8.2669204 
C     6.3231124   10.8323223   10.5163909 
C     9.6354933    7.1691440    7.1181852 
C     8.8467536    6.3351297    6.1000302 
C     7.8525629    8.4302104    8.3082679 
H     5.1302877    9.8237109    7.4075937 
H     5.6474213   11.4618477    7.8843739 
H     4.2496479   10.6930676    8.7018871 
H     6.9610268   10.3809252   11.2940600 
H     5.3300350   11.0333721   10.9567706 
H     6.7677314   11.7997205   10.2261556 
C    10.2360727    6.3149965    8.2408787 
H     8.4429998    6.9849838    5.3053077 
H     8.0015660    5.7837826    6.5442519 
H     9.5103428    5.5902503    5.6249604 
H    10.8708233    5.5125969    7.8230744 
H     9.4668866    5.8356954    8.8709889 
H    10.8632138    6.9426163    8.8974451 
C    10.8232566   12.6447621   11.8515235 
H     9.1968349    9.5734614   11.4582169 
H     9.1794864   10.6219381   12.9066502 
H    10.9735701   13.5151038   11.1895443 
H    11.8142186   12.2968348   12.1868481 
H    10.2763398   12.9900549   12.7472381 
H     9.0204613   11.9998137   10.9626057 
H     6.7866697    9.0278865    5.3012928 
H     6.3139029    9.3289399    3.5979760 
H     5.6938945   10.3813777    4.9069222 
H     5.7388096    8.9761987    9.6713277 
H    10.5057827    7.5449504    6.5498970 
C     7.0066797    7.2177617    8.6460229 
H     7.5120616    6.2774593    8.4040167 
H     6.0545254    7.2456084    8.0877104 
H     6.7602437    7.2038161    9.7204156 
C     6.9546288   13.4621902    5.1789894 
H     6.2980976   12.8734812    4.5229989 
H     7.5492988   14.1444209    4.5446576 
H     6.3160148   14.0855922    5.8226925 
C    12.7816640   10.4931517   10.4952335 
H    13.4353524    9.6707229   10.1658671 
H    12.3697749   10.2313005   11.4773194 
H    13.4159221   11.3871878   10.6239910 
O    10.9539074   12.2417225    6.2099496 
H    10.2551952   12.8910890    6.4859568 
H    11.5668441   12.0886480    6.9662966 
