99
Energy = -2415.237966107
O    14.8477412    7.8751426    3.0316260 
Eu   12.6990785    8.0779345    3.6823664 
N    12.1641209   10.3795489    3.4011860 
N    12.2106662    8.7490534    1.2936025 
N    12.0996046   10.6616547   -0.1449485 
N    14.3182414    8.1326636    5.5515630 
N    15.8565993    7.8487679    3.8996558 
N    16.6398165    7.8078060    6.1293566 
N    10.6247585    6.9450527    4.4095395 
N    12.3971487    5.6531548    3.9063899 
N    10.3230147    4.5762319    4.4928339 
C    12.2155630   11.5603073    4.2300117 
H    11.4860355   12.3062460    3.8428693 
C    11.7698991   11.1723308    5.6331243 
H    10.7382056   10.7829241    5.6268957 
H    11.8089328   12.0428697    6.3105974 
H    12.4357457   10.3974248    6.0557296 
C    13.5945633   12.2302065    4.2520722 
H    14.3403439   11.5443136    4.6950060 
H    13.5831119   13.1672425    4.8392484 
H    13.9204176   12.4720943    3.2264255 
C    11.8573885    7.8230454    0.2257003 
H    11.6322766    8.3807183   -0.7016072 
C    10.5813094    7.0738819    0.6081720 
C    13.0063957    6.8563254   -0.0540441 
H    13.9316466    7.3939546   -0.3243363 
H    12.7482703    6.1679976   -0.8777475 
H    13.2357995    6.2503606    0.8395139 
C    12.2028757   10.0277734    1.0853806 
C    11.5698354   12.0054138   -0.1849267 
H    10.7281982   12.1048813    0.5154789 
H    11.2014850   12.2083322   -1.2064309 
H    12.3265960   12.7752784    0.0715650 
C    13.1073162   10.4011966   -1.1504550 
H    13.8972107   11.1825984   -1.1364576 
H    12.6570979   10.3876433   -2.1598647 
H    13.5932340    9.4323646   -0.9730169 
C    13.8306350    7.9701897    6.9171273 
C    13.9632523    6.5377471    7.4370049 
H    15.0183282    6.2768668    7.6249374 
C    17.1739728    7.9690616    3.2865963 
H    17.9080082    7.9446830    4.1038527 
C    17.2965305    9.3062273    2.5593303 
H    16.5341438    9.3758825    1.7665675 
H    18.2970794    9.4067776    2.1041777 
H    17.1438679   10.1481096    3.2567835 
C    17.4250501    6.7863573    2.3572190 
H    17.3782183    5.8333031    2.9118699 
H    18.4200119    6.8686304    1.8869884 
H    16.6574654    6.7619832    1.5663735 
C    15.5761636    7.9439262    5.2110064 
C    17.3536892    6.5601042    6.2068034 
H    18.2820228    6.5322865    5.5921912 
H    16.7036061    5.7349797    5.8755817 
C    17.3775032    8.9813858    6.5186578 
H    16.7363492    9.8727476    6.4385241 
H    18.2858079    9.1531229    5.8964407 
H    17.7105970    8.8972314    7.5711433 
C     9.4144218    7.2243929    5.1487747 
C     8.5714342    8.2506065    4.3946499 
C     9.7361412    7.7104930    6.5650510 
C    13.0964833    4.5495179    3.2759414 
C    12.2570433    3.6123496    2.4016908 
C    11.1195480    5.7149266    4.2704328 
C    10.7072806    3.5570644    5.4237653 
C     9.0742195    4.3885056    3.8134810 
H     9.0975109    3.4724572    3.1834025 
H     8.8751078    5.2457498    3.1521471 
H     8.2190700    4.2850841    4.5146501 
H     9.8966284    3.3850802    6.1627390 
H    11.6040895    3.8740284    5.9770683 
H    10.9259020    2.5781857    4.9435257 
H     8.2747013    7.8593332    3.4057760 
H     9.1546608    9.1738634    4.2224145 
H     7.6552308    8.5118569    4.9545200 
H    10.3302724    6.9551555    7.1090772 
H     8.8136343    7.9033553    7.1433301 
H    10.3204993    8.6475554    6.5358431 
C    13.9859553    3.7661517    4.2477398 
H    11.6186015    4.1884806    1.7098142 
H    11.6066153    2.9448236    2.9888966 
H    12.9246244    2.9752924    1.7934883 
H    14.6541625    3.0816842    3.6937753 
H    13.3987280    3.1592972    4.9570503 
H    14.6134205    4.4630041    4.8297202 
H    17.6494290    6.3591310    7.2552298 
C    14.3546162    8.9872694    7.9327867 
H    13.5486688    5.8268704    6.7015750 
H    13.4104798    6.4196063    8.3863832 
H    14.3105185   10.0115276    7.5239710 
H    15.3938281    8.7712859    8.2262926 
H    13.7337421    8.9608504    8.8461224 
H    12.7423587    8.1602088    6.8412343 
H    10.7153272    6.5133032    1.5502441 
H    10.2978503    6.3579468   -0.1839079 
H     9.7468147    7.7804088    0.7557754 
H     8.8073141    6.3079462    5.2681874 
H    13.8115323    5.0395176    2.5857446 
O    12.2765173   10.8881889    2.0734362 
