84
Energy = -2777.584799399
Eu    8.9241103   10.2035890    7.7854231 
N     8.4099226   12.5877510    7.3646370 
N     8.5686469   11.2171981    5.5807961 
N    10.9233414   10.6125930   10.7546898 
N    11.3242961   10.4979862    8.4761758 
N     6.5239637    9.2479450    8.0562583 
N     8.9823554    7.9036414    7.4058933 
C     8.3782519   13.8863725    8.0071241 
H     7.8249530   14.6166301    7.3834570 
C     7.6502079   13.8071251    9.3460520 
H     6.6019496   13.4924613    9.2087885 
H     7.6478186   14.7909266    9.8484994 
H     8.1428595   13.0732994   10.0096182 
C     9.7916913   14.4403987    8.2090793 
H    10.3726792   13.7599299    8.8570331 
H     9.7663860   15.4376199    8.6852559 
H    10.3288819   14.5322170    7.2492434 
C     8.4922003   10.8754171    4.1751163 
H     7.6694313   11.4369861    3.6856923 
C     8.1553987    9.3954320    4.0280448 
C     9.7872045   11.2071876    3.4270255 
H    10.0444422   12.2772691    3.5161679 
H     9.7007792   10.9650217    2.3522050 
H    10.6289652   10.6259191    3.8428014 
C     8.3624743   12.4498636    6.0421611 
C    11.2885661   10.7034941   12.1849504 
C    12.3356311    9.6848178   12.6336461 
H    13.3638181    9.9202118   12.3153519 
C    12.2735808   10.5963486    7.3640848 
H    13.3092004   10.4716976    7.7244592 
C    12.1871309   11.9595963    6.6775673 
H    11.1828915   12.1160971    6.2457930 
H    12.9264097   12.0330313    5.8598360 
H    12.3766198   12.7798265    7.3902735 
C    12.0502275    9.4624877    6.3663264 
H    12.2012135    8.4810342    6.8430789 
H    12.7581745    9.5515489    5.5234617 
H    11.0321027    9.4715685    5.9363560 
C    11.7563631   10.7179680    9.7013123 
C     5.3870202   10.0167426    8.5648571 
C     5.0892031   11.1935047    7.6387774 
C     5.6755197   10.4603873    9.9947579 
C     9.9086763    7.0150809    8.1190837 
C    10.4971669    5.9373016    7.2054174 
C     6.3028715    8.1131388    7.4762388 
H     4.8395660   10.8417729    6.6223517 
H     5.9668239   11.8594242    7.5625677 
H     4.2344062   11.7804644    8.0203390 
H     5.8655175    9.5883191   10.6434227 
H     4.8169601   11.0195143   10.4072008 
H     6.5635490   11.1143817   10.0441575 
C     9.3308418    6.4108713    9.3994242 
H    10.9363549    6.3917852    6.3005884 
H     9.7139638    5.2266433    6.8812514 
H    11.2806738    5.3547821    7.7234648 
H    10.0906262    5.8020451    9.9231901 
H     8.4691527    5.7569170    9.1734678 
H     8.9971057    7.2135235   10.0796304 
C    11.5345450   12.1337322   12.6629346 
H    12.0748254    8.6829694   12.2516123 
H    12.3390051    9.6344252   13.7365420 
H    10.7066448   12.7837219   12.3323260 
H    12.4804662   12.5698704   12.2997828 
H    11.5644035   12.1546218   13.7666576 
H    10.3537564   10.3894446   12.6708195 
H     8.9227032    8.7669187    4.5141115 
H     8.0910057    9.1067019    2.9639110 
H     7.1902924    9.1623976    4.5088459 
H     4.4838660    9.3807945    8.6001686 
H    10.7386279    7.6803897    8.4242190 
C     4.9549190    7.5131896    7.1622195 
H     5.0727535    6.6033441    6.5507457 
H     4.3112597    8.2201313    6.6109722 
H     4.4323287    7.2260378    8.0914568 
C     8.0769679   13.6330229    5.1392237 
H     8.0129491   13.3527788    4.0797558 
H     8.8675535   14.3957193    5.2425457 
H     7.1247050   14.1124994    5.4239871 
C    13.1946723   11.1031746    9.9658827 
H    13.8698201   10.2449957    9.8035066 
H    13.3549953   11.4698961   10.9827218 
H    13.5025136   11.9058702    9.2776674 
S     7.5879171    7.1143708    6.8927028 
S     9.2257062   10.2772691   10.5254031 
