99
Energy = -3060.976993246
S    14.9456324    7.3372750    2.3537848 
Eu   12.5853342    8.0150719    3.7585162 
N    12.3501288   10.3520371    4.0187485 
N    12.0914445    8.9521086    1.4879149 
N    13.4600415   10.4173177    0.1972318 
N    14.5135375    7.9693434    5.1753768 
N    16.1407687    7.7082298    3.5712685 
N    16.8047321    7.9861525    5.8319467 
N    10.5820828    6.7797139    4.5884174 
N    12.2514030    5.6020277    3.6391840 
N    10.4125948    4.3882694    4.5964642 
C    11.4693438   11.4896063    4.2763507 
H    10.9936636   11.8187482    3.3240820 
C    10.3551345   11.0597991    5.2159207 
H     9.7936847   10.2091659    4.7974434 
H     9.6461195   11.8884723    5.3904418 
H    10.7700474   10.7548972    6.1933182 
C    12.2121661   12.6924923    4.8603328 
H    12.6673501   12.4208418    5.8304354 
H    11.5301142   13.5475282    5.0202228 
H    13.0201288   13.0268326    4.1857347 
C    11.2410562    8.4430917    0.4209421 
H    11.4213783    8.9997818   -0.5173534 
C     9.7840244    8.6769533    0.8209987 
C    11.5029295    6.9601854    0.1740870 
H    12.5476319    6.7698837   -0.1256407 
H    10.8401799    6.5724335   -0.6195828 
H    11.3135507    6.3792651    1.0944828 
C    12.8996051    9.9533326    1.3506834 
C    13.9443620   11.7723058    0.0603491 
H    13.5145546   12.4094927    0.8462293 
H    13.6401211   12.1728122   -0.9248431 
H    15.0492070   11.8249671    0.1263164 
C    13.8555290    9.5210811   -0.8670370 
H    14.9158132    9.7085763   -1.1209962 
H    13.2514980    9.6598488   -1.7844672 
H    13.7784437    8.4798207   -0.5273778 
C    13.9903247    7.8877778    6.5305107 
C    14.3744913    6.6093724    7.2760885 
H    15.4360867    6.6228817    7.5704138 
C    17.4940995    7.9776986    3.0728325 
H    18.1142433    8.1865478    3.9551897 
C    17.5189505    9.2249220    2.1915770 
H    16.9090503    9.0669377    1.2867799 
H    18.5562175    9.4560353    1.8907747 
H    17.1057873   10.0940594    2.7317946 
C    18.0745681    6.7611931    2.3603084 
H    18.0945320    5.8838141    3.0291069 
H    19.1063116    6.9709765    2.0282602 
H    17.4620051    6.5038619    1.4800913 
C    15.7839394    7.8992785    4.8591675 
C    17.6860437    6.8666527    6.0405972 
H    18.6597531    6.9538768    5.5088772 
H    17.1985703    5.9375988    5.7056752 
C    17.3270372    9.2778901    6.1961233 
H    16.5857553   10.0608115    5.9757021 
H    18.2653014    9.5309742    5.6507832 
H    17.5551877    9.3159280    7.2790839 
C     9.5092999    6.8896703    5.5569841 
C     8.2944154    7.5990724    4.9580170 
C     9.9830630    7.5818513    6.8367994 
C    12.8814320    4.5262326    2.8939946 
C    11.9488112    3.5060846    2.2357109 
C    11.0872820    5.5809945    4.2666030 
C    10.9939590    3.4169541    5.4743645 
C     9.0822533    4.1242143    4.1330190 
H     9.0504704    3.1931345    3.5270600 
H     8.7373731    4.9509475    3.4934845 
H     8.3533610    4.0054215    4.9634710 
H    10.3331357    3.2361857    6.3494943 
H    11.9599312    3.7829154    5.8525251 
H    11.1683024    2.4336961    4.9857336 
H     7.9175303    7.0556512    4.0744765 
H     8.5570892    8.6194990    4.6314617 
H     7.4711454    7.6757433    5.6911751 
H    10.7904674    6.9991234    7.3140773 
H     9.1587658    7.6798133    7.5669241 
H    10.3679921    8.5939656    6.6252812 
C    14.0033227    3.8488656    3.6836907 
H    11.1217873    4.0067251    1.7021329 
H    11.5083981    2.7909848    2.9488424 
H    12.5205147    2.9209940    1.4927615 
H    14.5769183    3.1656206    3.0313851 
H    13.6205443    3.2613116    4.5355948 
H    14.6972006    4.6178260    4.0631555 
H    17.9107642    6.7621179    7.1204380 
C    14.1959208    9.1435870    7.3778764 
H    14.1954082    5.7252152    6.6397896 
H    13.7669819    6.5051390    8.1927710 
H    13.9475620   10.0422359    6.7873699 
H    15.2335634    9.2235044    7.7382833 
H    13.5349323    9.1171548    8.2625932 
H    12.8855752    7.8200978    6.3936881 
H     9.5520985    8.1446136    1.7615455 
H     9.0980959    8.3121819    0.0354749 
H     9.5912149    9.7512055    0.9815595 
H     9.1823698    5.8785039    5.8616874 
H    13.4029256    5.0407970    2.0658786 
S    13.5294848   10.6892493    2.8717631 
