73
Energy = -1864.062081314
Eu    9.1075842   10.6804047    7.8754148 
N     8.3996754   12.9313682    7.3086563 
N     8.8165820   11.4699356    5.5979550 
N    10.1375428   11.1479605   10.0128171 
N    11.4991397   10.5812730    8.2692197 
N     7.1107853    9.5452652    8.6514791 
N     8.6915178    8.3238603    7.5431178 
C     8.1579909   14.2824412    7.7599087 
H     7.7742737   14.8860807    6.9084018 
C     7.0957202   14.2920875    8.8553072 
H     6.1544440   13.8456379    8.4913392 
H     6.8840035   15.3197352    9.1999790 
H     7.4385544   13.7024113    9.7254623 
C     9.4544094   14.9351422    8.2429815 
H     9.8796985   14.3588794    9.0848302 
H     9.2810585   15.9726102    8.5815558 
H    10.2058351   14.9563919    7.4343346 
C     8.7757361   11.1591926    4.1878088 
H     8.7132984   12.1058651    3.6079501 
C     7.5371574   10.3276945    3.8511451 
C    10.0521347   10.4366431    3.7672110 
H    10.9413327   11.0517139    3.9884851 
H    10.0460785   10.2081755    2.6868425 
H    10.1510573    9.4835428    4.3186133 
C     8.4724614   12.6715796    6.0177869 
C     9.9253439   11.3757222   11.4318288 
C    10.1073904   10.1007352   12.2581084 
H    11.1544381    9.7478016   12.2218197 
C    12.8177350   10.2937795    7.7545905 
H    13.5338278   10.2454133    8.6042057 
C    13.2852942   11.4083806    6.8186556 
H    12.5972392   11.4992031    5.9586665 
H    14.3005148   11.2085548    6.4308896 
H    13.2982662   12.3785223    7.3444216 
C    12.8429314    8.9382461    7.0509679 
H    12.5305656    8.1337604    7.7389986 
H    13.8543612    8.7014577    6.6755725 
H    12.1508730    8.9384986    6.1886600 
C    11.3378492   10.8529438    9.5499021 
C     5.8543109    9.6164513    9.3603081 
C     4.8117525   10.3603781    8.5258821 
C     6.0399427   10.2766666   10.7248112 
C     9.2372803    7.0431951    7.1277972 
C     8.2926250    6.2702510    6.2050278 
C     7.5600508    8.3820132    8.2219172 
H     4.6601568    9.8590332    7.5545451 
H     5.1502413   11.3928836    8.3239604 
H     3.8394668   10.4093377    9.0482171 
H     6.7751054    9.7213595   11.3323639 
H     5.0869505   10.3173758   11.2816037 
H     6.4095978   11.3113961   10.6037568 
C     9.6918550    6.1922867    8.3151152 
H     7.9903779    6.8980591    5.3487721 
H     7.3755502    5.9509383    6.7326474 
H     8.7820665    5.3612309    5.8128659 
H    10.1941196    5.2689302    7.9753170 
H     8.8348809    5.8965316    8.9476272 
H    10.3986827    6.7588231    8.9460520 
C    10.7674881   12.5284981   11.9826764 
H     9.4644079    9.2926197   11.8676776 
H     9.8455181   10.2703328   13.3179522 
H    10.6134121   13.4414432   11.3818601 
H    11.8462924   12.2900837   11.9687776 
H    10.4915589   12.7518715   13.0284578 
H     8.8665541   11.6759205   11.5314600 
H     7.5520477    9.3780179    4.4158913 
H     7.4915351   10.0925431    2.7724059 
H     6.6161051   10.8703133    4.1265318 
H     5.4759715    8.5848375    9.5320178 
H    10.1399475    7.2801715    6.5365212 
H    12.2238614   10.8189152   10.2239804 
H     6.9764824    7.4611319    8.4491073 
H     8.2440625   13.4743410    5.2770111 
