75
Energy = -2659.892372142
Eu    8.7550175   10.7783375    8.1132119 
N     8.6764159   12.8878146    6.7263622 
N     8.3956635   11.7556576    4.6881460 
N     9.9335364   10.8462937   10.2646145 
N    11.2134098   10.7331155    8.3749929 
N     6.5710334   10.2371600    8.9127363 
N     8.4522560    8.3006512    7.9327707 
C     8.8682440   14.2318864    7.2796548 
H     9.5067202   14.8206367    6.5890405 
C     7.5407332   14.9751012    7.4223101 
H     7.0335106   15.0714542    6.4465217 
H     7.6959279   15.9904932    7.8289402 
H     6.8586500   14.4325358    8.0997680 
C     9.6082513   14.1500385    8.6088323 
H     9.0147377   13.6171683    9.3754616 
H     9.8177128   15.1586966    9.0045707 
H    10.5654244   13.6152676    8.4922492 
C     8.2198129   11.8549422    3.2350830 
H     8.3133047   12.9304178    2.9996815 
C     6.8260058   11.3953562    2.8208569 
C     9.3214123   11.1076644    2.4931785 
H    10.3169166   11.4834535    2.7852575 
H     9.2029434   11.2382659    1.4034635 
H     9.2793891   10.0308338    2.7271497 
C     8.5635028   12.8474520    5.4260388 
C     9.8163246   10.7380396   11.7075541 
C    10.1986436    9.3482423   12.2217431 
H    11.2720698    9.1423804   12.0560302 
C    12.5137566   10.7575407    7.7457464 
H    13.2957167   10.5867624    8.5193214 
C    12.7880533   12.1223837    7.1115263 
H    12.0159952   12.3523425    6.3555976 
H    13.7771580   12.1448084    6.6190024 
H    12.7675622   12.9210548    7.8734592 
C    12.6353398    9.6478672    6.7040879 
H    12.5578843    8.6544653    7.1783700 
H    13.6049502    9.6986704    6.1770053 
H    11.8247295    9.7357195    5.9577096 
C    11.1186137   10.7535209    9.6884738 
C     5.5397636   11.1069793    9.4747529 
C     4.6349491   11.7098529    8.3964414 
C     6.2094921   12.1915027   10.3097823 
C     9.5358873    7.3832313    7.5519138 
C     9.2682369    6.6659873    6.2317195 
C     7.2619980    7.8250926    8.0764836 
H     4.1480693   10.9153260    7.8044236 
H     5.2305769   12.3265718    7.6994669 
H     3.8429113   12.3406867    8.8396526 
H     6.8168298   11.7469982   11.1154426 
H     5.4585121   12.8619686   10.7631537 
H     6.8707163   12.8201550    9.6852265 
C     9.8625477    6.4165921    8.6884535 
H     9.0479806    7.3959787    5.4340268 
H     8.4199078    5.9621012    6.3088117 
H    10.1559527    6.0822980    5.9317525 
H    10.7552145    5.8160512    8.4403788 
H     9.0268630    5.7177506    8.8754065 
H    10.0641366    6.9673155    9.6234147 
C    10.5726180   11.8416168   12.4512230 
H     9.6185072    8.5724701   11.6923585 
H    10.0006128    9.2518025   13.3046072 
H    10.2678377   12.8356882   12.0801882 
H    11.6656100   11.7497060   12.3160097 
H    10.3685786   11.7996180   13.5360580 
H     8.7440509   10.8772107   11.9338611 
H     6.6798247   10.3340303    3.0824358 
H     6.6903819   11.5144353    1.7319267 
H     6.0496536   11.9849149    3.3376596 
H     4.8928007   10.5256944   10.1681978 
H    10.4164357    8.0285658    7.4024329 
H    12.0509119   10.6885653   10.2977022 
H     6.9977672    6.7715342    7.8787207 
H     8.6145469   13.7815720    4.8380385 
S     5.9179164    8.7267895    8.5827067 
S     8.3312116   10.1778648    5.4213745 
