75
Energy = -2014.147642524
Eu    8.7852943   10.6245069    8.0475997 
N     8.6862343   12.9183816    6.9371943 
N     8.6161417   11.6122219    5.0350941 
N     9.8953780   11.0191538   10.1934069 
N    11.2310396   10.5664341    8.3908027 
N     6.7394703    9.7861504    8.9006620 
N     8.5092863    8.1456879    7.8696547 
C     8.8185784   14.2840592    7.4357489 
H     8.9387447   14.9717611    6.5719740 
C     7.5745536   14.7371911    8.1947229 
H     6.6676858   14.6129175    7.5783275 
H     7.6582748   15.8021155    8.4760542 
H     7.4421530   14.1537676    9.1217008 
C    10.0673687   14.4195747    8.3022453 
H    10.0137214   13.7355483    9.1689695 
H    10.1741569   15.4519178    8.6807331 
H    10.9719136   14.1641310    7.7259843 
C     8.4732354   11.4095063    3.6016110 
H     8.4789494   12.4192553    3.1555667 
C     7.1402542   10.7361299    3.2903069 
C     9.6595024   10.6205141    3.0584050 
H    10.6080883   11.1437263    3.2690043 
H     9.5677315   10.4875684    1.9669972 
H     9.7024426    9.6261822    3.5319811 
C     8.6457912   12.7924960    5.6341785 
C     9.7303584   11.1366963   11.6315064 
C    10.0082729    9.8157621   12.3516668 
H    11.0710283    9.5269665   12.2525011 
C    12.5576813   10.5093100    7.8210018 
H    13.3042632   10.4919899    8.6461797 
C    12.8448447   11.7482022    6.9708025 
H    12.1076299   11.8274504    6.1511222 
H    13.8565504   11.7058358    6.5277839 
H    12.7731439   12.6651719    7.5799389 
C    12.7537725    9.2388249    6.9979462 
H    12.6003386    8.3408108    7.6202501 
H    13.7726305    9.1943590    6.5735648 
H    12.0320221    9.2090562    6.1615199 
C    11.0949487   10.8228085    9.6759685 
C     5.5849484   10.3685033    9.5399422 
C     4.2897668   10.1844590    8.7444461 
C     5.8871256   11.8438211    9.7516878 
C     9.4610599    7.2422459    7.2195374 
C     9.0036018    6.9184012    5.7993064 
C     7.4048274    7.6706364    8.3152041 
H     4.0862017    9.1143248    8.5751219 
H     4.3764299   10.6774318    7.7591248 
H     3.4257991   10.6166359    9.2816243 
H     6.8030778   11.9822952   10.3550858 
H     5.0568006   12.3462687   10.2763031 
H     6.0211867   12.3521950    8.7799230 
C     9.7786237    5.9904036    8.0341796 
H     8.7952011    7.8541856    5.2526644 
H     8.0807548    6.3094663    5.8102013 
H     9.7803640    6.3523940    5.2553382 
H    10.6112594    5.4358921    7.5675347 
H     8.9197701    5.2977264    8.0940825 
H    10.0785455    6.2576180    9.0623417 
C    10.5330372   12.2887509   12.2419141 
H     9.3946696    9.0074055   11.9174160 
H     9.7766841    9.8881594   13.4295730 
H    10.3079873   13.2369872   11.7235928 
H    11.6217359   12.1137988   12.1712873 
H    10.2884579   12.4139605   13.3117609 
H     8.6623976   11.3710042   11.7937186 
H     7.0915280    9.7501780    3.7806075 
H     7.0210005   10.5978485    2.2020001 
H     6.2974875   11.3451478    3.6596422 
H     5.4362441    9.9014905   10.5398525 
H    10.3963411    7.8183508    7.1399647 
H    12.0089375   10.8706033   10.3126644 
H     7.1175189    6.6086726    8.3021393 
H     8.6443187   13.6615906    4.9567210 
O     8.6436033   10.5155657    5.7907320 
O     6.4696875    8.3966303    8.8490841 
